ca_results/winter/rts_gmlc_export_10_43_winter_v35_N1_buses.csv
Contingency,Converged,Bus#,Name,Type,Area,Zone,Volt(kV),Volt(pu),Angle(deg),Angle(rad),VoltMin,VoltMax,Violation
LT_101-102_A1,True,101.0,ABEL        ,2.0,1.0,11.0,132.63851928710938,0.9611486792564392,-13.096301078796387,-0.2285735011100769,0.949999988079071,1.0499999523162842,False
LT_101-102_A1,True,102.0,ADAMS       ,2.0,1.0,12.0,132.84889221191406,0.9626731276512146,-12.203471183776855,-0.2129906862974167,0.949999988079071,1.0499999523162842,False
LT_101-102_A1,True,103.0,ADLER       ,1.0,1.0,11.0,129.73135375976562,0.940082311630249,-14.59099006652832,-0.2546607255935669,0.949999988079071,1.0499999523162842,True
LT_101-102_A1,True,104.0,AGRICOLA    ,1.0,1.0,11.0,130.55116271972656,0.9460229277610779,-12.662050247192383,-0.22099439799785614,0.949999988079071,1.0499999523162842,True
LT_101-102_A1,True,105.0,AIKEN       ,1.0,1.0,11.0,133.07476806640625,0.9643099308013916,-13.084417343139648,-0.22836607694625854,0.949999988079071,1.0499999523162842,False
LT_101-102_A1,True,106.0,ALBER       ,1.0,1.0,12.0,134.35682678222656,0.9736001491546631,-13.397697448730469,-0.23383384943008423,0.949999988079071,1.0499999523162842,False
LT_101-102_A1,True,107.0,ALDER       ,2.0,1.0,12.0,132.96527099609375,0.9635164737701416,-8.020214080810547,-0.13997909426689148,0.949999988079071,1.0499999523162842,False
LT_101-102_A1,True,108.0,ALGER       ,1.0,1.0,12.0,131.25997924804688,0.9511592388153076,-10.976615905761719,-0.19157801568508148,0.949999988079071,1.0499999523162842,False
LT_101-102_A1,True,109.0,ALI         ,1.0,1.0,13.0,130.63172912597656,0.9466067552566528,-10.912182807922363,-0.1904534548521042,0.949999988079071,1.0499999523162842,True
LT_101-102_A1,True,110.0,ALLEN       ,1.0,1.0,13.0,135.13893127441406,0.9792675971984863,-11.435985565185547,-0.19959552586078644,0.949999988079071,1.0499999523162842,False
LT_101-102_A1,True,111.0,ANNA        ,1.0,1.0,13.0,218.12014770507812,0.9483484625816345,-7.6599931716918945,-0.13369205594062805,0.949999988079071,1.0499999523162842,True
LT_101-102_A1,True,112.0,ARCHER      ,1.0,1.0,13.0,218.7147979736328,0.9509338736534119,-6.150092124938965,-0.10733932256698608,0.949999988079071,1.0499999523162842,False
LT_101-102_A1,True,113.0,ARNE        ,3.0,1.0,14.0,218.5,0.949999988079071,1.4672310995357354e-21,2.5608004283006296e-23,0.949999988079071,1.0499999523162842,False
LT_101-102_A1,True,114.0,ARNOLD      ,2.0,1.0,16.0,217.4343719482422,0.9453668594360352,-10.67924690246582,-0.18638795614242554,0.949999988079071,1.0499999523162842,True
LT_101-102_A1,True,115.0,ARTHUR      ,2.0,1.0,16.0,221.17630004882812,0.9616360664367676,-12.77224063873291,-0.2229175716638565,0.949999988079071,1.0499999523162842,False
LT_101-102_A1,True,116.0,ASSER       ,2.0,1.0,16.0,219.94105529785156,0.9562654495239258,-11.662109375,-0.20354212820529938,0.949999988079071,1.0499999523162842,False
LT_101-102_A1,True,117.0,ASTON       ,1.0,1.0,17.0,220.76217651367188,0.9598355293273926,-12.160358428955078,-0.21223822236061096,0.949999988079071,1.0499999523162842,False
LT_101-102_A1,True,118.0,ASTOR       ,2.0,1.0,17.0,220.4241943359375,0.9583660364151001,-12.357020378112793,-0.2156706154346466,0.949999988079071,1.0499999523162842,False
LT_101-102_A1,True,119.0,ATTAR       ,1.0,1.0,15.0,218.52359008789062,0.9501025676727295,-10.329967498779297,-0.18029187619686127,0.949999988079071,1.0499999523162842,False
LT_101-102_A1,True,120.0,ATTILA      ,1.0,1.0,15.0,218.29766845703125,0.949120283126831,-8.148344993591309,-0.14221540093421936,0.949999988079071,1.0499999523162842,True
LT_101-102_A1,True,121.0,ATTLEE      ,2.0,1.0,17.0,221.58761596679688,0.9634244441986084,-12.757451057434082,-0.22265945374965668,0.949999988079071,1.0499999523162842,False
LT_101-102_A1,True,122.0,AUBREY      ,2.0,1.0,17.0,222.92962646484375,0.9692592620849609,-12.580755233764648,-0.21957552433013916,0.949999988079071,1.0499999523162842,False
LT_101-102_A1,True,123.0,AUSTEN      ,2.0,1.0,15.0,218.60459899902344,0.9504547715187073,-6.547726631164551,-0.1142793521285057,0.949999988079071,1.0499999523162842,False
LT_101-102_A1,True,124.0,AVERY       ,1.0,1.0,16.0,219.45120239257812,0.9541356563568115,-13.436326026916504,-0.23450805246829987,0.949999988079071,1.0499999523162842,False
LT_101-102_A1,True,201.0,BACH        ,2.0,2.0,21.0,131.96511840820312,0.9562689661979675,-32.282081604003906,-0.5634284019470215,0.949999988079071,1.0499999523162842,False
LT_101-102_A1,True,202.0,BACON       ,2.0,2.0,22.0,132.103759765625,0.9572736620903015,-32.42397689819336,-0.565904974937439,0.949999988079071,1.0499999523162842,False
LT_101-102_A1,True,203.0,BAFFIN      ,1.0,2.0,21.0,128.55360412597656,0.9315478801727295,-23.468034744262695,-0.40959432721138,0.949999988079071,1.0499999523162842,True
LT_101-102_A1,True,204.0,BAILEY      ,1.0,2.0,21.0,129.28858947753906,0.9368738532066345,-32.70446014404297,-0.5708003044128418,0.949999988079071,1.0499999523162842,True
LT_101-102_A1,True,205.0,BAIN        ,1.0,2.0,21.0,132.31674194335938,0.9588170051574707,-33.66168212890625,-0.5875069499015808,0.949999988079071,1.0499999523162842,False
LT_101-102_A1,True,206.0,BAJER       ,1.0,2.0,22.0,133.43370056152344,0.9669108986854553,-35.01713180541992,-0.6111640334129333,0.949999988079071,1.0499999523162842,False
LT_101-102_A1,True,207.0,BAKER       ,2.0,2.0,22.0,131.09999084472656,0.949999988079071,-38.39911651611328,-0.6701907515525818,0.949999988079071,1.0499999523162842,False
LT_101-102_A1,True,208.0,BALCH       ,1.0,2.0,22.0,129.357177734375,0.9373708963394165,-37.46104431152344,-0.6538183689117432,0.949999988079071,1.0499999523162842,True
LT_101-102_A1,True,209.0,BALZAC      ,1.0,2.0,23.0,129.23736572265625,0.9365026354789734,-30.54893684387207,-0.5331793427467346,0.949999988079071,1.0499999523162842,True
LT_101-102_A1,True,210.0,BANKS       ,1.0,2.0,23.0,134.4710235595703,0.9744277596473694,-33.24641799926758,-0.5802592635154724,0.949999988079071,1.0499999523162842,False
LT_101-102_A1,True,211.0,BARDEEN     ,1.0,2.0,23.0,217.97723388671875,0.9477270841598511,-27.78046417236328,-0.4848603904247284,0.949999988079071,1.0499999523162842,True
LT_101-102_A1,True,212.0,BARKLA      ,1.0,2.0,23.0,218.68133544921875,0.9507884383201599,-28.238582611083984,-0.49285608530044556,0.949999988079071,1.0499999523162842,False
LT_101-102_A1,True,213.0,BARLOW      ,2.0,2.0,24.0,218.49998474121094,0.9499999284744263,-26.100357055664062,-0.45553702116012573,0.949999988079071,1.0499999523162842,True
LT_101-102_A1,True,214.0,BARRY       ,2.0,2.0,26.0,217.3932342529297,0.9451879858970642,-25.006811141967773,-0.4364510476589203,0.949999988079071,1.0499999523162842,True
LT_101-102_A1,True,215.0,BARTON      ,2.0,2.0,26.0,220.81295776367188,0.9600563645362854,-15.284573554992676,-0.2667660415172577,0.949999988079071,1.0499999523162842,False
LT_101-102_A1,True,216.0,BASOV       ,2.0,2.0,26.0,221.0763397216797,0.9612014889717102,-17.651775360107422,-0.3080815076828003,0.949999988079071,1.0499999523162842,False
LT_101-102_A1,True,217.0,BATES       ,1.0,2.0,27.0,224.3644561767578,0.9754976630210876,-14.296128273010254,-0.2495144158601761,0.949999988079071,1.0499999523162842,False
LT_101-102_A1,True,218.0,BAYLE       ,2.0,2.0,27.0,226.92056274414062,0.9866111278533936,-13.978266716003418,-0.2439666986465454,0.949999988079071,1.0499999523162842,False
LT_101-102_A1,True,219.0,BEDE        ,1.0,2.0,25.0,218.9674072265625,0.952032208442688,-21.189952850341797,-0.3698343336582184,0.949999988079071,1.0499999523162842,False
LT_101-102_A1,True,220.0,BEETHOVEN   ,1.0,2.0,25.0,218.64329528808594,0.9506230354309082,-23.185258865356445,-0.4046589732170105,0.949999988079071,1.0499999523162842,False
LT_101-102_A1,True,221.0,BEHRING     ,2.0,2.0,27.0,225.50140380859375,0.9804409146308899,-13.607597351074219,-0.23749729990959167,0.949999988079071,1.0499999523162842,False
LT_101-102_A1,True,222.0,BELL        ,1.0,2.0,27.0,226.7497100830078,0.9858683347702026,-13.93484878540039,-0.24320891499519348,0.949999988079071,1.0499999523162842,False
LT_101-102_A1,True,223.0,BLOCH       ,2.0,2.0,25.0,218.7642059326172,0.9511487483978271,-23.84691619873047,-0.41620707511901855,0.949999988079071,1.0499999523162842,False
LT_101-102_A1,True,224.0,BORDET      ,1.0,2.0,26.0,217.34783935546875,0.9449906349182129,-18.32839012145996,-0.3198906481266022,0.949999988079071,1.0499999523162842,True
LT_101-102_A1,True,301.0,CABELL      ,2.0,3.0,31.0,133.38796997070312,0.9665794968605042,-69.45660400390625,-1.212246060371399,0.949999988079071,1.0499999523162842,False
LT_101-102_A1,True,302.0,CABOT       ,2.0,3.0,32.0,133.63504028320312,0.9683698415756226,-69.61241912841797,-1.2149654626846313,0.949999988079071,1.0499999523162842,False
LT_101-102_A1,True,303.0,CAESAR      ,1.0,3.0,31.0,129.17189025878906,0.936028242111206,-63.26276397705078,-1.1041431427001953,0.949999988079071,1.0499999523162842,True
LT_101-102_A1,True,304.0,CAINE       ,1.0,3.0,31.0,129.5485382080078,0.9387574791908264,-68.5407485961914,-1.1962612867355347,0.949999988079071,1.0499999523162842,True
LT_101-102_A1,True,305.0,CALVIN      ,1.0,3.0,31.0,132.4232940673828,0.9595890641212463,-69.30369567871094,-1.209577202796936,0.949999988079071,1.0499999523162842,False
LT_101-102_A1,True,306.0,CAMUS       ,1.0,3.0,32.0,132.7360076904297,0.9618551135063171,-69.97386932373047,-1.2212740182876587,0.949999988079071,1.0499999523162842,False
LT_101-102_A1,True,307.0,CAREW       ,2.0,3.0,32.0,127.22050476074219,0.9218876957893372,-75.42266845703125,-1.3163734674453735,0.949999988079071,1.0499999523162842,True
LT_101-102_A1,True,308.0,CARREL      ,1.0,3.0,32.0,126.07227325439453,0.9135671854019165,-73.67575073242188,-1.2858840227127075,0.949999988079071,1.0499999523162842,True
LT_101-102_A1,True,309.0,CARTER      ,1.0,3.0,33.0,129.471435546875,0.9381988048553467,-64.54340362548828,-1.1264945268630981,0.949999988079071,1.0499999523162842,True
LT_101-102_A1,True,310.0,CARUSO      ,1.0,3.0,33.0,133.92320251464844,0.9704579710960388,-66.77603149414062,-1.1654611825942993,0.949999988079071,1.0499999523162842,False
LT_101-102_A1,True,311.0,CARY        ,1.0,3.0,33.0,218.98069763183594,0.9520899653434753,-59.16522216796875,-1.0326275825500488,0.949999988079071,1.0499999523162842,False
LT_101-102_A1,True,312.0,CAXTON      ,1.0,3.0,33.0,218.65304565429688,0.9506654143333435,-57.22802734375,-0.9988171458244324,0.949999988079071,1.0499999523162842,False
LT_101-102_A1,True,313.0,CECIL       ,2.0,3.0,34.0,224.20571899414062,0.9748075008392334,-54.96153259277344,-0.9592593908309937,0.949999988079071,1.0499999523162842,False
LT_101-102_A1,True,314.0,CHAIN       ,2.0,3.0,36.0,217.7309112548828,0.9466561675071716,-56.382755279541016,-0.9840644001960754,0.949999988079071,1.0499999523162842,True
LT_101-102_A1,True,315.0,CHASE       ,2.0,3.0,36.0,223.49435424804688,0.9717146158218384,-48.4032096862793,-0.8447951078414917,0.949999988079071,1.0499999523162842,False
LT_101-102_A1,True,316.0,CHIFA       ,2.0,3.0,36.0,222.22225952148438,0.9661837220191956,-47.98823165893555,-0.8375523686408997,0.949999988079071,1.0499999523162842,False
LT_101-102_A1,True,317.0,CHUHSI      ,1.0,3.0,37.0,228.49826049804688,0.9934707283973694,-45.218719482421875,-0.7892152667045593,0.949999988079071,1.0499999523162842,False
LT_101-102_A1,True,318.0,CLARK       ,2.0,3.0,37.0,230.67193603515625,1.002921462059021,-43.94346237182617,-0.7669578194618225,0.949999988079071,1.0499999523162842,False
LT_101-102_A1,True,319.0,CLAY        ,1.0,3.0,35.0,221.23130798339844,0.9618752598762512,-46.80478286743164,-0.8168972730636597,0.949999988079071,1.0499999523162842,False
LT_101-102_A1,True,320.0,CLIVE       ,1.0,3.0,35.0,221.94375610351562,0.9649728536605835,-44.36430740356445,-0.7743029594421387,0.949999988079071,1.0499999523162842,False
LT_101-102_A1,True,321.0,COBB        ,2.0,3.0,37.0,232.30474853515625,1.0100206136703491,-44.65153884887695,-0.7793160676956177,0.949999988079071,1.0499999523162842,False
LT_101-102_A1,True,322.0,COLE        ,2.0,3.0,37.0,236.59979248046875,1.028694748878479,-44.03849792480469,-0.7686164975166321,0.949999988079071,1.0499999523162842,False
LT_101-102_A1,True,323.0,COMTE       ,2.0,3.0,35.0,223.04014587402344,0.9697397947311401,-42.48418045043945,-0.7414885759353638,0.949999988079071,1.0499999523162842,False
LT_101-102_A1,True,324.0,CURIE       ,1.0,3.0,36.0,217.51885986328125,0.9457342028617859,-53.910194396972656,-0.9409101009368896,0.949999988079071,1.0499999523162842,True
LT_101-102_A1,True,325.0,CURTISS     ,1.0,3.0,35.0,219.79624938964844,0.9556358456611633,-40.15668869018555,-0.700866162776947,0.949999988079071,1.0499999523162842,False
LT_101-103_A2,True,101.0,ABEL        ,2.0,1.0,11.0,132.63851928710938,0.9611486792564392,-11.821451187133789,-0.20632317662239075,0.949999988079071,1.0499999523162842,False
LT_101-103_A2,True,102.0,ADAMS       ,2.0,1.0,12.0,132.84889221191406,0.9626731276512146,-11.873015403747559,-0.20722314715385437,0.949999988079071,1.0499999523162842,False
LT_101-103_A2,True,103.0,ADLER       ,1.0,1.0,11.0,128.48028564453125,0.9310165643692017,-15.22665023803711,-0.2657550871372223,0.949999988079071,1.0499999523162842,True
LT_101-103_A2,True,104.0,AGRICOLA    ,1.0,1.0,11.0,130.3907470703125,0.9448605179786682,-12.558423042297363,-0.2191857546567917,0.949999988079071,1.0499999523162842,True
LT_101-103_A2,True,105.0,AIKEN       ,1.0,1.0,11.0,133.04051208496094,0.9640616774559021,-12.326377868652344,-0.21513581275939941,0.949999988079071,1.0499999523162842,False
LT_101-103_A2,True,106.0,ALBER       ,1.0,1.0,12.0,134.2805633544922,0.9730475544929504,-13.14280891418457,-0.22938521206378937,0.949999988079071,1.0499999523162842,False
LT_101-103_A2,True,107.0,ALDER       ,2.0,1.0,12.0,132.96527099609375,0.9635164737701416,-7.99899435043335,-0.1396087408065796,0.949999988079071,1.0499999523162842,False
LT_101-103_A2,True,108.0,ALGER       ,1.0,1.0,12.0,131.1774444580078,0.9505612254142761,-10.9313383102417,-0.19078777730464935,0.949999988079071,1.0499999523162842,False
LT_101-103_A2,True,109.0,ALI         ,1.0,1.0,13.0,130.33555603027344,0.9444605112075806,-10.991466522216797,-0.19183722138404846,0.949999988079071,1.0499999523162842,True
LT_101-103_A2,True,110.0,ALLEN       ,1.0,1.0,13.0,135.0421600341797,0.9785663485527039,-11.20233154296875,-0.19551749527454376,0.949999988079071,1.0499999523162842,False
LT_101-103_A2,True,111.0,ANNA        ,1.0,1.0,13.0,217.98605346679688,0.9477654695510864,-7.646427631378174,-0.133455291390419,0.949999988079071,1.0499999523162842,True
LT_101-103_A2,True,112.0,ARCHER      ,1.0,1.0,13.0,218.59474182128906,0.9504119157791138,-6.1199493408203125,-0.1068132296204567,0.949999988079071,1.0499999523162842,False
LT_101-103_A2,True,113.0,ARNE        ,3.0,1.0,14.0,218.5,0.949999988079071,1.4672310995357354e-21,2.5608004283006296e-23,0.949999988079071,1.0499999523162842,False
LT_101-103_A2,True,114.0,ARNOLD      ,2.0,1.0,16.0,217.34014892578125,0.9449571371078491,-10.732528686523438,-0.18731789290905,0.949999988079071,1.0499999523162842,True
LT_101-103_A2,True,115.0,ARTHUR      ,2.0,1.0,16.0,221.17630004882812,0.9616360664367676,-12.956758499145508,-0.22613802552223206,0.949999988079071,1.0499999523162842,False
LT_101-103_A2,True,116.0,ASSER       ,2.0,1.0,16.0,219.94105529785156,0.9562654495239258,-11.803364753723145,-0.20600751042366028,0.949999988079071,1.0499999523162842,False
LT_101-103_A2,True,117.0,ASTON       ,1.0,1.0,17.0,220.76210021972656,0.9598352313041687,-12.313252449035645,-0.2149067223072052,0.949999988079071,1.0499999523162842,False
LT_101-103_A2,True,118.0,ASTOR       ,2.0,1.0,17.0,220.42379760742188,0.9583643078804016,-12.515332221984863,-0.218433678150177,0.949999988079071,1.0499999523162842,False
LT_101-103_A2,True,119.0,ATTAR       ,1.0,1.0,15.0,218.5166778564453,0.9500725269317627,-10.43420696258545,-0.1821112036705017,0.949999988079071,1.0499999523162842,False
LT_101-103_A2,True,120.0,ATTILA      ,1.0,1.0,15.0,218.29176330566406,0.9490946531295776,-8.220077514648438,-0.14346736669540405,0.949999988079071,1.0499999523162842,True
LT_101-103_A2,True,121.0,ATTLEE      ,2.0,1.0,17.0,221.58763122558594,0.9634245038032532,-12.920758247375488,-0.22550968825817108,0.949999988079071,1.0499999523162842,False
LT_101-103_A2,True,122.0,AUBREY      ,2.0,1.0,17.0,222.9294891357422,0.9692586660385132,-12.739977836608887,-0.2223544865846634,0.949999988079071,1.0499999523162842,False
LT_101-103_A2,True,123.0,AUSTEN      ,2.0,1.0,15.0,218.60459899902344,0.9504547715187073,-6.601603984832764,-0.11521968245506287,0.949999988079071,1.0499999523162842,False
LT_101-103_A2,True,124.0,AVERY       ,1.0,1.0,16.0,218.59124755859375,0.950396716594696,-13.772021293640137,-0.24036702513694763,0.949999988079071,1.0499999523162842,False
LT_101-103_A2,True,201.0,BACH        ,2.0,2.0,21.0,131.96511840820312,0.9562689661979675,-32.317657470703125,-0.5640493631362915,0.949999988079071,1.0499999523162842,False
LT_101-103_A2,True,202.0,BACON       ,2.0,2.0,22.0,132.103759765625,0.9572736024856567,-32.45988845825195,-0.5665317177772522,0.949999988079071,1.0499999523162842,False
LT_101-103_A2,True,203.0,BAFFIN      ,1.0,2.0,21.0,128.54335021972656,0.9314735531806946,-23.49054718017578,-0.4099872410297394,0.949999988079071,1.0499999523162842,True
LT_101-103_A2,True,204.0,BAILEY      ,1.0,2.0,21.0,129.28614807128906,0.9368561506271362,-32.74114990234375,-0.5714406371116638,0.949999988079071,1.0499999523162842,True
LT_101-103_A2,True,205.0,BAIN        ,1.0,2.0,21.0,132.3162841796875,0.9588136076927185,-33.69928741455078,-0.5881633162498474,0.949999988079071,1.0499999523162842,False
LT_101-103_A2,True,206.0,BAJER       ,1.0,2.0,22.0,133.43295288085938,0.966905415058136,-35.0559196472168,-0.6118410229682922,0.949999988079071,1.0499999523162842,False
LT_101-103_A2,True,207.0,BAKER       ,2.0,2.0,22.0,131.09999084472656,0.949999988079071,-38.438106536865234,-0.6708712577819824,0.949999988079071,1.0499999523162842,False
LT_101-103_A2,True,208.0,BALCH       ,1.0,2.0,22.0,129.35597229003906,0.9373621344566345,-37.49988555908203,-0.6544962525367737,0.949999988079071,1.0499999523162842,True
LT_101-103_A2,True,209.0,BALZAC      ,1.0,2.0,23.0,129.23294067382812,0.9364705681800842,-30.586156845092773,-0.5338289737701416,0.949999988079071,1.0499999523162842,True
LT_101-103_A2,True,210.0,BANKS       ,1.0,2.0,23.0,134.47015380859375,0.9744213819503784,-33.28607940673828,-0.580951452255249,0.949999988079071,1.0499999523162842,False
LT_101-103_A2,True,211.0,BARDEEN     ,1.0,2.0,23.0,217.9756622314453,0.9477202892303467,-27.820619583129883,-0.4855612516403198,0.949999988079071,1.0499999523162842,True
LT_101-103_A2,True,212.0,BARKLA      ,1.0,2.0,23.0,218.6809844970703,0.9507868885993958,-28.28118133544922,-0.4935995638370514,0.949999988079071,1.0499999523162842,False
LT_101-103_A2,True,213.0,BARLOW      ,2.0,2.0,24.0,218.5,0.949999988079071,-26.143789291381836,-0.45629504323005676,0.949999988079071,1.0499999523162842,False
LT_101-103_A2,True,214.0,BARRY       ,2.0,2.0,26.0,217.39198303222656,0.9451825022697449,-25.045913696289062,-0.4371334910392761,0.949999988079071,1.0499999523162842,True
LT_101-103_A2,True,215.0,BARTON      ,2.0,2.0,26.0,220.81295776367188,0.9600563645362854,-15.316780090332031,-0.267328143119812,0.949999988079071,1.0499999523162842,False
LT_101-103_A2,True,216.0,BASOV       ,2.0,2.0,26.0,221.0763397216797,0.9612014889717102,-17.68941307067871,-0.3087384104728699,0.949999988079071,1.0499999523162842,False
LT_101-103_A2,True,217.0,BATES       ,1.0,2.0,27.0,224.3656768798828,0.9755029678344727,-14.335113525390625,-0.25019484758377075,0.949999988079071,1.0499999523162842,False
LT_101-103_A2,True,218.0,BAYLE       ,2.0,2.0,27.0,226.9211883544922,0.9866138696670532,-14.015538215637207,-0.24461720883846283,0.949999988079071,1.0499999523162842,False
LT_101-103_A2,True,219.0,BEDE        ,1.0,2.0,25.0,218.9659881591797,0.9520260095596313,-21.233190536499023,-0.3705889582633972,0.949999988079071,1.0499999523162842,False
LT_101-103_A2,True,220.0,BEETHOVEN   ,1.0,2.0,25.0,218.64256286621094,0.9506198167800903,-23.233407974243164,-0.40549933910369873,0.949999988079071,1.0499999523162842,False
LT_101-103_A2,True,221.0,BEHRING     ,2.0,2.0,27.0,225.50140380859375,0.9804409146308899,-13.643291473388672,-0.23812027275562286,0.949999988079071,1.0499999523162842,False
LT_101-103_A2,True,222.0,BELL        ,1.0,2.0,27.0,226.75018310546875,0.985870361328125,-13.971834182739258,-0.24385441839694977,0.949999988079071,1.0499999523162842,False
LT_101-103_A2,True,223.0,BLOCH       ,2.0,2.0,25.0,218.7642059326172,0.9511487483978271,-23.897768020629883,-0.4170945882797241,0.949999988079071,1.0499999523162842,False
LT_101-103_A2,True,224.0,BORDET      ,1.0,2.0,26.0,217.34352111816406,0.9449718594551086,-18.356685638427734,-0.32038450241088867,0.949999988079071,1.0499999523162842,True
LT_101-103_A2,True,301.0,CABELL      ,2.0,3.0,31.0,133.38796997070312,0.9665794968605042,-69.56390380859375,-1.2141187191009521,0.949999988079071,1.0499999523162842,False
LT_101-103_A2,True,302.0,CABOT       ,2.0,3.0,32.0,133.63504028320312,0.9683699011802673,-69.71979522705078,-1.2168395519256592,0.949999988079071,1.0499999523162842,False
LT_101-103_A2,True,303.0,CAESAR      ,1.0,3.0,31.0,129.17153930664062,0.9360256791114807,-63.367305755615234,-1.1059677600860596,0.949999988079071,1.0499999523162842,True
LT_101-103_A2,True,304.0,CAINE       ,1.0,3.0,31.0,129.54884338378906,0.9387596845626831,-68.6484146118164,-1.1981403827667236,0.949999988079071,1.0499999523162842,True
LT_101-103_A2,True,305.0,CALVIN      ,1.0,3.0,31.0,132.42376708984375,0.9595925211906433,-69.41156768798828,-1.211459994316101,0.949999988079071,1.0499999523162842,False
LT_101-103_A2,True,306.0,CAMUS       ,1.0,3.0,32.0,132.73672485351562,0.9618602991104126,-70.08208465576172,-1.2231626510620117,0.949999988079071,1.0499999523162842,False
LT_101-103_A2,True,307.0,CAREW       ,2.0,3.0,32.0,127.22124481201172,0.9218930602073669,-75.5307846069336,-1.3182604312896729,0.949999988079071,1.0499999523162842,True
LT_101-103_A2,True,308.0,CARREL      ,1.0,3.0,32.0,126.0730209350586,0.9135726094245911,-73.78388977050781,-1.2877713441848755,0.949999988079071,1.0499999523162842,True
LT_101-103_A2,True,309.0,CARTER      ,1.0,3.0,33.0,129.47193908691406,0.938202440738678,-64.6513442993164,-1.1283783912658691,0.949999988079071,1.0499999523162842,True
LT_101-103_A2,True,310.0,CARUSO      ,1.0,3.0,33.0,133.92408752441406,0.9704643487930298,-66.8845443725586,-1.1673550605773926,0.949999988079071,1.0499999523162842,False
LT_101-103_A2,True,311.0,CARY        ,1.0,3.0,33.0,218.98118591308594,0.9520921111106873,-59.27307891845703,-1.0345100164413452,0.949999988079071,1.0499999523162842,False
LT_101-103_A2,True,312.0,CAXTON      ,1.0,3.0,33.0,218.6563262939453,0.9506796598434448,-57.33843994140625,-1.0007442235946655,0.949999988079071,1.0499999523162842,False
LT_101-103_A2,True,313.0,CECIL       ,2.0,3.0,34.0,224.2083282470703,0.9748188257217407,-55.072021484375,-0.9611877799034119,0.949999988079071,1.0499999523162842,False
LT_101-103_A2,True,314.0,CHAIN       ,2.0,3.0,36.0,217.72898864746094,0.9466477632522583,-56.487850189208984,-0.9858986139297485,0.949999988079071,1.0499999523162842,True
LT_101-103_A2,True,315.0,CHASE       ,2.0,3.0,36.0,223.49436950683594,0.9717146754264832,-48.50238037109375,-0.8465259671211243,0.949999988079071,1.0499999523162842,False
LT_101-103_A2,True,316.0,CHIFA       ,2.0,3.0,36.0,222.21946716308594,0.9661716222763062,-48.08935546875,-0.8393173217773438,0.949999988079071,1.0499999523162842,False
LT_101-103_A2,True,317.0,CHUHSI      ,1.0,3.0,37.0,228.48936462402344,0.9934320449829102,-45.314453125,-0.7908861637115479,0.949999988079071,1.0499999523162842,False
LT_101-103_A2,True,318.0,CLARK       ,2.0,3.0,37.0,230.66078186035156,1.0028729438781738,-44.03638458251953,-0.7685796618461609,0.949999988079071,1.0499999523162842,False
LT_101-103_A2,True,319.0,CLAY        ,1.0,3.0,35.0,221.23089599609375,0.961873471736908,-46.91195297241211,-0.818767786026001,0.949999988079071,1.0499999523162842,False
LT_101-103_A2,True,320.0,CLIVE       ,1.0,3.0,35.0,221.94422912597656,0.9649749398231506,-44.47675704956055,-0.776265561580658,0.949999988079071,1.0499999523162842,False
LT_101-103_A2,True,321.0,COBB        ,2.0,3.0,37.0,232.29708862304688,1.0099873542785645,-44.74660110473633,-0.7809752821922302,0.949999988079071,1.0499999523162842,False
LT_101-103_A2,True,322.0,COLE        ,2.0,3.0,37.0,236.59173583984375,1.028659701347351,-44.13376235961914,-0.7702791690826416,0.949999988079071,1.0499999523162842,False
LT_101-103_A2,True,323.0,COMTE       ,2.0,3.0,35.0,223.0401611328125,0.9697398543357849,-42.59951400756836,-0.7435015439987183,0.949999988079071,1.0499999523162842,False
LT_101-103_A2,True,324.0,CURIE       ,1.0,3.0,36.0,217.51687622070312,0.9457255601882935,-54.0113410949707,-0.9426754117012024,0.949999988079071,1.0499999523162842,True
LT_101-103_A2,True,325.0,CURTISS     ,1.0,3.0,35.0,219.80496215820312,0.9556737542152405,-40.27541732788086,-0.7029383778572083,0.949999988079071,1.0499999523162842,False
LT_101-105_A3,True,101.0,ABEL        ,2.0,1.0,11.0,132.63851928710938,0.961148738861084,-12.54391098022461,-0.21893247961997986,0.949999988079071,1.0499999523162842,False
LT_101-105_A3,True,102.0,ADAMS       ,2.0,1.0,12.0,132.84890747070312,0.9626731872558594,-12.527132987976074,-0.21863964200019836,0.949999988079071,1.0499999523162842,False
LT_101-105_A3,True,103.0,ADLER       ,1.0,1.0,11.0,129.73207092285156,0.9400874376296997,-14.452239990234375,-0.25223907828330994,0.949999988079071,1.0499999523162842,True
LT_101-105_A3,True,104.0,AGRICOLA    ,1.0,1.0,11.0,130.56285095214844,0.9461075663566589,-12.814038276672363,-0.2236470878124237,0.949999988079071,1.0499999523162842,True
LT_101-105_A3,True,105.0,AIKEN       ,1.0,1.0,11.0,133.55445861816406,0.9677858948707581,-13.072588920593262,-0.22815963625907898,0.949999988079071,1.0499999523162842,False
LT_101-105_A3,True,106.0,ALBER       ,1.0,1.0,12.0,134.47801208496094,0.9744783639907837,-13.488568305969238,-0.2354198396205902,0.949999988079071,1.0499999523162842,False
LT_101-105_A3,True,107.0,ALDER       ,2.0,1.0,12.0,132.96527099609375,0.9635164737701416,-8.020898818969727,-0.13999104499816895,0.949999988079071,1.0499999523162842,False
LT_101-105_A3,True,108.0,ALGER       ,1.0,1.0,12.0,131.29881286621094,0.951440691947937,-10.98349380493164,-0.19169805943965912,0.949999988079071,1.0499999523162842,False
LT_101-105_A3,True,109.0,ALI         ,1.0,1.0,13.0,130.660888671875,0.9468179941177368,-10.921744346618652,-0.1906203329563141,0.949999988079071,1.0499999523162842,True
LT_101-105_A3,True,110.0,ALLEN       ,1.0,1.0,13.0,135.29196166992188,0.9803764820098877,-11.458261489868164,-0.1999843269586563,0.949999988079071,1.0499999523162842,False
LT_101-105_A3,True,111.0,ANNA        ,1.0,1.0,13.0,218.18490600585938,0.9486300349235535,-7.663422584533691,-0.13375191390514374,0.949999988079071,1.0499999523162842,True
LT_101-105_A3,True,112.0,ARCHER      ,1.0,1.0,13.0,218.77613830566406,0.9512006044387817,-6.1574273109436035,-0.10746734589338303,0.949999988079071,1.0499999523162842,False
LT_101-105_A3,True,113.0,ARNE        ,3.0,1.0,14.0,218.5,0.949999988079071,1.4672310995357354e-21,2.5608004283006296e-23,0.949999988079071,1.0499999523162842,False
LT_101-105_A3,True,114.0,ARNOLD      ,2.0,1.0,16.0,217.475830078125,0.9455471038818359,-10.667445182800293,-0.18618197739124298,0.949999988079071,1.0499999523162842,True
LT_101-105_A3,True,115.0,ARTHUR      ,2.0,1.0,16.0,221.17630004882812,0.9616360664367676,-12.73231315612793,-0.22222070395946503,0.949999988079071,1.0499999523162842,False
LT_101-105_A3,True,116.0,ASSER       ,2.0,1.0,16.0,219.94105529785156,0.9562654495239258,-11.631363868713379,-0.20300552248954773,0.949999988079071,1.0499999523162842,False
LT_101-105_A3,True,117.0,ASTON       ,1.0,1.0,17.0,220.76219177246094,0.9598355889320374,-12.127141952514648,-0.21165847778320312,0.949999988079071,1.0499999523162842,False
LT_101-105_A3,True,118.0,ASTOR       ,2.0,1.0,17.0,220.42428588867188,0.9583664536476135,-12.322651863098145,-0.21507076919078827,0.949999988079071,1.0499999523162842,False
LT_101-105_A3,True,119.0,ATTAR       ,1.0,1.0,15.0,218.5250701904297,0.9501090049743652,-10.307195663452148,-0.17989443242549896,0.949999988079071,1.0499999523162842,False
LT_101-105_A3,True,120.0,ATTILA      ,1.0,1.0,15.0,218.29891967773438,0.9491257071495056,-8.132575035095215,-0.1419401615858078,0.949999988079071,1.0499999523162842,True
LT_101-105_A3,True,121.0,ATTLEE      ,2.0,1.0,17.0,221.58763122558594,0.9634245038032532,-12.722020149230957,-0.2220410704612732,0.949999988079071,1.0499999523162842,False
LT_101-105_A3,True,122.0,AUBREY      ,2.0,1.0,17.0,222.92965698242188,0.9692593812942505,-12.54619312286377,-0.218972310423851,0.949999988079071,1.0499999523162842,False
LT_101-105_A3,True,123.0,AUSTEN      ,2.0,1.0,15.0,218.60459899902344,0.9504547715187073,-6.535801887512207,-0.11407122015953064,0.949999988079071,1.0499999523162842,False
LT_101-105_A3,True,124.0,AVERY       ,1.0,1.0,16.0,219.46421813964844,0.9541922807693481,-13.359004974365234,-0.23315854370594025,0.949999988079071,1.0499999523162842,False
LT_101-105_A3,True,201.0,BACH        ,2.0,2.0,21.0,131.96511840820312,0.9562689661979675,-32.273372650146484,-0.5632764101028442,0.949999988079071,1.0499999523162842,False
LT_101-105_A3,True,202.0,BACON       ,2.0,2.0,22.0,132.103759765625,0.9572736024856567,-32.41521453857422,-0.5657520294189453,0.949999988079071,1.0499999523162842,False
LT_101-105_A3,True,203.0,BAFFIN      ,1.0,2.0,21.0,128.5552978515625,0.9315601587295532,-23.461658477783203,-0.40948304533958435,0.949999988079071,1.0499999523162842,True
LT_101-105_A3,True,204.0,BAILEY      ,1.0,2.0,21.0,129.2890167236328,0.9368768930435181,-32.695556640625,-0.5706449151039124,0.949999988079071,1.0499999523162842,True
LT_101-105_A3,True,205.0,BAIN        ,1.0,2.0,21.0,132.31683349609375,0.9588176012039185,-33.652610778808594,-0.5873486399650574,0.949999988079071,1.0499999523162842,False
LT_101-105_A3,True,206.0,BAJER       ,1.0,2.0,22.0,133.433837890625,0.9669118523597717,-35.00784683227539,-0.6110019683837891,0.949999988079071,1.0499999523162842,False
LT_101-105_A3,True,207.0,BAKER       ,2.0,2.0,22.0,131.10000610351562,0.9500000476837158,-38.38979721069336,-0.6700281500816345,0.949999988079071,1.0499999523162842,False
LT_101-105_A3,True,208.0,BALCH       ,1.0,2.0,22.0,129.35739135742188,0.9373724460601807,-37.45175552368164,-0.6536562442779541,0.949999988079071,1.0499999523162842,True
LT_101-105_A3,True,209.0,BALZAC      ,1.0,2.0,23.0,129.2381134033203,0.9365081191062927,-30.539934158325195,-0.5330222249031067,0.949999988079071,1.0499999523162842,True
LT_101-105_A3,True,210.0,BANKS       ,1.0,2.0,23.0,134.47119140625,0.9744288921356201,-33.236976623535156,-0.5800944566726685,0.949999988079071,1.0499999523162842,False
LT_101-105_A3,True,211.0,BARDEEN     ,1.0,2.0,23.0,217.97752380371094,0.9477283954620361,-27.770978927612305,-0.48469486832618713,0.949999988079071,1.0499999523162842,True
LT_101-105_A3,True,212.0,BARKLA      ,1.0,2.0,23.0,218.6813507080078,0.9507884979248047,-28.22856330871582,-0.49268120527267456,0.949999988079071,1.0499999523162842,False
LT_101-105_A3,True,213.0,BARLOW      ,2.0,2.0,24.0,218.5,0.949999988079071,-26.090198516845703,-0.45535969734191895,0.949999988079071,1.0499999523162842,False
LT_101-105_A3,True,214.0,BARRY       ,2.0,2.0,26.0,217.3935089111328,0.9451891779899597,-24.99764633178711,-0.43629106879234314,0.949999988079071,1.0499999523162842,True
LT_101-105_A3,True,215.0,BARTON      ,2.0,2.0,26.0,220.81295776367188,0.9600563645362854,-15.2770414352417,-0.26663458347320557,0.949999988079071,1.0499999523162842,False
LT_101-105_A3,True,216.0,BASOV       ,2.0,2.0,26.0,221.0763397216797,0.9612014889717102,-17.64305305480957,-0.30792924761772156,0.949999988079071,1.0499999523162842,False
LT_101-105_A3,True,217.0,BATES       ,1.0,2.0,27.0,224.36422729492188,0.9754966497421265,-14.287174224853516,-0.2493581473827362,0.949999988079071,1.0499999523162842,False
LT_101-105_A3,True,218.0,BAYLE       ,2.0,2.0,27.0,226.9204559326172,0.9866106510162354,-13.969673156738281,-0.24381670355796814,0.949999988079071,1.0499999523162842,False
LT_101-105_A3,True,219.0,BEDE        ,1.0,2.0,25.0,218.96774291992188,0.9520336389541626,-21.17999267578125,-0.36966049671173096,0.949999988079071,1.0499999523162842,False
LT_101-105_A3,True,220.0,BEETHOVEN   ,1.0,2.0,25.0,218.64346313476562,0.9506237506866455,-23.174213409423828,-0.4044661819934845,0.949999988079071,1.0499999523162842,False
LT_101-105_A3,True,221.0,BEHRING     ,2.0,2.0,27.0,225.50140380859375,0.9804409146308899,-13.599333763122559,-0.23735307157039642,0.949999988079071,1.0499999523162842,False
LT_101-105_A3,True,222.0,BELL        ,1.0,2.0,27.0,226.7496337890625,0.985867977142334,-13.926315307617188,-0.24305997788906097,0.949999988079071,1.0499999523162842,False
LT_101-105_A3,True,223.0,BLOCH       ,2.0,2.0,25.0,218.7642059326172,0.9511487483978271,-23.835277557373047,-0.41600391268730164,0.949999988079071,1.0499999523162842,False
LT_101-105_A3,True,224.0,BORDET      ,1.0,2.0,26.0,217.34866333007812,0.9449942111968994,-18.321340560913086,-0.3197675943374634,0.949999988079071,1.0499999523162842,True
LT_101-105_A3,True,301.0,CABELL      ,2.0,3.0,31.0,133.38796997070312,0.9665794968605042,-69.43302154541016,-1.21183443069458,0.949999988079071,1.0499999523162842,False
LT_101-105_A3,True,302.0,CABOT       ,2.0,3.0,32.0,133.63504028320312,0.9683698415756226,-69.58882141113281,-1.2145535945892334,0.949999988079071,1.0499999523162842,False
LT_101-105_A3,True,303.0,CAESAR      ,1.0,3.0,31.0,129.17198181152344,0.9360288381576538,-63.23977279663086,-1.1037418842315674,0.949999988079071,1.0499999523162842,True
LT_101-105_A3,True,304.0,CAINE       ,1.0,3.0,31.0,129.5484619140625,0.9387570023536682,-68.51708984375,-1.1958484649658203,0.949999988079071,1.0499999523162842,True
LT_101-105_A3,True,305.0,CALVIN      ,1.0,3.0,31.0,132.42318725585938,0.959588348865509,-69.27999114990234,-1.2091635465621948,0.949999988079071,1.0499999523162842,False
LT_101-105_A3,True,306.0,CAMUS       ,1.0,3.0,32.0,132.73585510253906,0.9618539810180664,-69.95010375976562,-1.220859169960022,0.949999988079071,1.0499999523162842,False
...
LT_103-124_A7,False,,,,,,,,,,,,
LT_104-109_A8,True,101.0,ABEL        ,2.0,1.0,11.0,132.63851928710938,0.9611486792564392,-14.25627326965332,-0.24881881475448608,0.949999988079071,1.0499999523162842,False
LT_104-109_A8,True,102.0,ADAMS       ,2.0,1.0,12.0,132.84889221191406,0.9626731276512146,-14.402311325073242,-0.2513676583766937,0.949999988079071,1.0499999523162842,False
LT_104-109_A8,True,103.0,ADLER       ,1.0,1.0,11.0,129.64344787597656,0.9394452571868896,-14.72087574005127,-0.2569276690483093,0.949999988079071,1.0499999523162842,True
LT_104-109_A8,True,104.0,AGRICOLA    ,1.0,1.0,11.0,130.1581573486328,0.9431750178337097,-16.94414710998535,-0.2957310676574707,0.949999988079071,1.0499999523162842,True
LT_104-109_A8,True,105.0,AIKEN       ,1.0,1.0,11.0,133.06068420410156,0.9642078876495361,-13.861471176147461,-0.24192821979522705,0.949999988079071,1.0499999523162842,False
LT_104-109_A8,True,106.0,ALBER       ,1.0,1.0,12.0,134.3618927001953,0.9736369252204895,-14.213760375976562,-0.24807682633399963,0.949999988079071,1.0499999523162842,False
LT_104-109_A8,True,107.0,ALDER       ,2.0,1.0,12.0,132.96527099609375,0.9635164737701416,-8.032047271728516,-0.1401856243610382,0.949999988079071,1.0499999523162842,False
LT_104-109_A8,True,108.0,ALGER       ,1.0,1.0,12.0,131.2196502685547,0.9508669972419739,-10.984695434570312,-0.19171904027462006,0.949999988079071,1.0499999523162842,False
LT_104-109_A8,True,109.0,ALI         ,1.0,1.0,13.0,130.45162963867188,0.9453016519546509,-10.514620780944824,-0.18351468443870544,0.949999988079071,1.0499999523162842,True
LT_104-109_A8,True,110.0,ALLEN       ,1.0,1.0,13.0,135.14547729492188,0.9793151021003723,-11.8234224319458,-0.20635758340358734,0.949999988079071,1.0499999523162842,False
LT_104-109_A8,True,111.0,ANNA        ,1.0,1.0,13.0,218.04933166503906,0.9480406045913696,-7.665109634399414,-0.13378135859966278,0.949999988079071,1.0499999523162842,True
LT_104-109_A8,True,112.0,ARCHER      ,1.0,1.0,13.0,218.64691162109375,0.9506387710571289,-6.151302814483643,-0.10736045241355896,0.949999988079071,1.0499999523162842,False
LT_104-109_A8,True,113.0,ARNE        ,3.0,1.0,14.0,218.5,0.949999988079071,1.4672310995357354e-21,2.5608004283006296e-23,0.949999988079071,1.0499999523162842,False
LT_104-109_A8,True,114.0,ARNOLD      ,2.0,1.0,16.0,217.389892578125,0.945173442363739,-10.697338104248047,-0.18670371174812317,0.949999988079071,1.0499999523162842,True
LT_104-109_A8,True,115.0,ARTHUR      ,2.0,1.0,16.0,221.17630004882812,0.9616360664367676,-12.81418514251709,-0.22364965081214905,0.949999988079071,1.0499999523162842,False
LT_104-109_A8,True,116.0,ASSER       ,2.0,1.0,16.0,219.9410400390625,0.956265389919281,-11.695812225341797,-0.2041303664445877,0.949999988079071,1.0499999523162842,False
LT_104-109_A8,True,117.0,ASTON       ,1.0,1.0,17.0,220.7621612548828,0.9598354697227478,-12.196233749389648,-0.21286435425281525,0.949999988079071,1.0499999523162842,False
LT_104-109_A8,True,118.0,ASTOR       ,2.0,1.0,17.0,220.42410278320312,0.9583656787872314,-12.393906593322754,-0.2163144052028656,0.949999988079071,1.0499999523162842,False
LT_104-109_A8,True,119.0,ATTAR       ,1.0,1.0,15.0,218.5221710205078,0.9500963687896729,-10.355925559997559,-0.180744931101799,0.949999988079071,1.0499999523162842,False
LT_104-109_A8,True,120.0,ATTILA      ,1.0,1.0,15.0,218.29644775390625,0.949114978313446,-8.167503356933594,-0.1425497829914093,0.949999988079071,1.0499999523162842,True
LT_104-109_A8,True,121.0,ATTLEE      ,2.0,1.0,17.0,221.58763122558594,0.9634245038032532,-12.795269966125488,-0.22331951558589935,0.949999988079071,1.0499999523162842,False
LT_104-109_A8,True,122.0,AUBREY      ,2.0,1.0,17.0,222.92959594726562,0.9692591428756714,-12.617810249328613,-0.22022226452827454,0.949999988079071,1.0499999523162842,False
LT_104-109_A8,True,123.0,AUSTEN      ,2.0,1.0,15.0,218.60459899902344,0.9504547715187073,-6.563149929046631,-0.11454853415489197,0.949999988079071,1.0499999523162842,False
LT_104-109_A8,True,124.0,AVERY       ,1.0,1.0,16.0,219.38360595703125,0.9538417458534241,-13.51024341583252,-0.23579815030097961,0.949999988079071,1.0499999523162842,False
LT_104-109_A8,True,201.0,BACH        ,2.0,2.0,21.0,131.96511840820312,0.9562689661979675,-32.29511642456055,-0.5636559128761292,0.949999988079071,1.0499999523162842,False
LT_104-109_A8,True,202.0,BACON       ,2.0,2.0,22.0,132.103759765625,0.9572736620903015,-32.437042236328125,-0.5661330223083496,0.949999988079071,1.0499999523162842,False
LT_104-109_A8,True,203.0,BAFFIN      ,1.0,2.0,21.0,128.5533905029297,0.9315462708473206,-23.480112075805664,-0.4098051190376282,0.949999988079071,1.0499999523162842,True
LT_104-109_A8,True,204.0,BAILEY      ,1.0,2.0,21.0,129.28846740722656,0.9368729591369629,-32.717594146728516,-0.571029543876648,0.949999988079071,1.0499999523162842,True
LT_104-109_A8,True,205.0,BAIN        ,1.0,2.0,21.0,132.31671142578125,0.9588167667388916,-33.67488479614258,-0.5877374410629272,0.949999988079071,1.0499999523162842,False
LT_104-109_A8,True,206.0,BAJER       ,1.0,2.0,22.0,133.43365478515625,0.9669105410575867,-35.03044128417969,-0.611396312713623,0.949999988079071,1.0499999523162842,False
LT_104-109_A8,True,207.0,BAKER       ,2.0,2.0,22.0,131.09999084472656,0.949999988079071,-38.41242980957031,-0.670423150062561,0.949999988079071,1.0499999523162842,False
LT_104-109_A8,True,208.0,BALCH       ,1.0,2.0,22.0,129.3571319580078,0.9373704791069031,-37.4743537902832,-0.6540506482124329,0.949999988079071,1.0499999523162842,True
LT_104-109_A8,True,209.0,BALZAC      ,1.0,2.0,23.0,129.2371368408203,0.9365010261535645,-30.56212615966797,-0.5334095358848572,0.949999988079071,1.0499999523162842,True
LT_104-109_A8,True,210.0,BANKS       ,1.0,2.0,23.0,134.47097778320312,0.974427342414856,-33.259803771972656,-0.5804928541183472,0.949999988079071,1.0499999523162842,False
LT_104-109_A8,True,211.0,BARDEEN     ,1.0,2.0,23.0,217.9770050048828,0.9477261304855347,-27.793703079223633,-0.4850914776325226,0.949999988079071,1.0499999523162842,True
LT_104-109_A8,True,212.0,BARKLA      ,1.0,2.0,23.0,218.68145751953125,0.9507889151573181,-28.252403259277344,-0.4930972754955292,0.949999988079071,1.0499999523162842,False
LT_104-109_A8,True,213.0,BARLOW      ,2.0,2.0,24.0,218.5,0.949999988079071,-26.114206314086914,-0.45577871799468994,0.949999988079071,1.0499999523162842,False
LT_104-109_A8,True,214.0,BARRY       ,2.0,2.0,26.0,217.39291381835938,0.9451866149902344,-25.01947021484375,-0.4366719722747803,0.949999988079071,1.0499999523162842,True
LT_104-109_A8,True,215.0,BARTON      ,2.0,2.0,26.0,220.81295776367188,0.9600563645362854,-15.295039176940918,-0.2669486999511719,0.949999988079071,1.0499999523162842,False
LT_104-109_A8,True,216.0,BASOV       ,2.0,2.0,26.0,221.0763397216797,0.9612014889717102,-17.663623809814453,-0.3082882761955261,0.949999988079071,1.0499999523162842,False
LT_104-109_A8,True,217.0,BATES       ,1.0,2.0,27.0,224.36473083496094,0.9754988551139832,-14.308218002319336,-0.24972543120384216,0.949999988079071,1.0499999523162842,False
LT_104-109_A8,True,218.0,BAYLE       ,2.0,2.0,27.0,226.92071533203125,0.9866117835044861,-13.989946365356445,-0.24417054653167725,0.949999988079071,1.0499999523162842,False
LT_104-109_A8,True,219.0,BEDE        ,1.0,2.0,25.0,218.96707153320312,0.9520307183265686,-21.203142166137695,-0.37006452679634094,0.949999988079071,1.0499999523162842,False
LT_104-109_A8,True,220.0,BEETHOVEN   ,1.0,2.0,25.0,218.64312744140625,0.9506222605705261,-23.199626922607422,-0.40490972995758057,0.949999988079071,1.0499999523162842,False
LT_104-109_A8,True,221.0,BEHRING     ,2.0,2.0,27.0,225.50140380859375,0.9804409146308899,-13.618900299072266,-0.23769456148147583,0.949999988079071,1.0499999523162842,False
LT_104-109_A8,True,222.0,BELL        ,1.0,2.0,27.0,226.7498321533203,0.9858688116073608,-13.946460723876953,-0.2434115707874298,0.949999988079071,1.0499999523162842,False
LT_104-109_A8,True,223.0,BLOCH       ,2.0,2.0,25.0,218.7642059326172,0.9511487483978271,-23.861928939819336,-0.41646909713745117,0.949999988079071,1.0499999523162842,False
LT_104-109_A8,True,224.0,BORDET      ,1.0,2.0,26.0,217.34735107421875,0.944988489151001,-18.33945655822754,-0.3200837969779968,0.949999988079071,1.0499999523162842,True
LT_104-109_A8,True,301.0,CABELL      ,2.0,3.0,31.0,133.38796997070312,0.9665794968605042,-69.48306274414062,-1.212707757949829,0.949999988079071,1.0499999523162842,False
LT_104-109_A8,True,302.0,CABOT       ,2.0,3.0,32.0,133.63504028320312,0.9683698415756226,-69.6388931274414,-1.2154275178909302,0.949999988079071,1.0499999523162842,False
LT_104-109_A8,True,303.0,CAESAR      ,1.0,3.0,31.0,129.1718292236328,0.9360277056694031,-63.288665771484375,-1.1045951843261719,0.949999988079071,1.0499999523162842,True
LT_104-109_A8,True,304.0,CAINE       ,1.0,3.0,31.0,129.548583984375,0.9387578964233398,-68.5672836303711,-1.1967244148254395,0.949999988079071,1.0499999523162842,True
LT_104-109_A8,True,305.0,CALVIN      ,1.0,3.0,31.0,132.4233856201172,0.9595897793769836,-69.33026885986328,-1.2100410461425781,0.949999988079071,1.0499999523162842,False
LT_104-109_A8,True,306.0,CAMUS       ,1.0,3.0,32.0,132.73614501953125,0.9618561267852783,-70.00051879882812,-1.2217390537261963,0.949999988079071,1.0499999523162842,False
LT_104-109_A8,True,307.0,CAREW       ,2.0,3.0,32.0,127.22066497802734,0.9218888878822327,-75.44929504394531,-1.3168381452560425,0.949999988079071,1.0499999523162842,True
LT_104-109_A8,True,308.0,CARREL      ,1.0,3.0,32.0,126.07241821289062,0.9135682582855225,-73.70237731933594,-1.2863487005233765,0.949999988079071,1.0499999523162842,True
LT_104-109_A8,True,309.0,CARTER      ,1.0,3.0,33.0,129.47154235839844,0.9381995797157288,-64.56998443603516,-1.1269584894180298,0.949999988079071,1.0499999523162842,True
LT_104-109_A8,True,310.0,CARUSO      ,1.0,3.0,33.0,133.92337036132812,0.9704592227935791,-66.802734375,-1.1659272909164429,0.949999988079071,1.0499999523162842,False
LT_104-109_A8,True,311.0,CARY        ,1.0,3.0,33.0,218.98080444335938,0.9520904421806335,-59.19179153442383,-1.0330913066864014,0.949999988079071,1.0499999523162842,False
LT_104-109_A8,True,312.0,CAXTON      ,1.0,3.0,33.0,218.6537322998047,0.9506683945655823,-57.25511932373047,-0.9992899894714355,0.949999988079071,1.0499999523162842,False
LT_104-109_A8,True,313.0,CECIL       ,2.0,3.0,34.0,224.2062530517578,0.9748098254203796,-54.98863983154297,-0.9597324728965759,0.949999988079071,1.0499999523162842,False
LT_104-109_A8,True,314.0,CHAIN       ,2.0,3.0,36.0,217.73052978515625,0.9466544985771179,-56.40876770019531,-0.9845184087753296,0.949999988079071,1.0499999523162842,True
LT_104-109_A8,True,315.0,CHASE       ,2.0,3.0,36.0,223.49435424804688,0.9717146158218384,-48.428016662597656,-0.8452280759811401,0.949999988079071,1.0499999523162842,False
LT_104-109_A8,True,316.0,CHIFA       ,2.0,3.0,36.0,222.22169494628906,0.9661812782287598,-48.01343536376953,-0.837992250919342,0.949999988079071,1.0499999523162842,False
LT_104-109_A8,True,317.0,CHUHSI      ,1.0,3.0,37.0,228.4964599609375,0.993462860584259,-45.24283218383789,-0.7896361351013184,0.949999988079071,1.0499999523162842,False
LT_104-109_A8,True,318.0,CLARK       ,2.0,3.0,37.0,230.66969299316406,1.0029116868972778,-43.967002868652344,-0.7673686742782593,0.949999988079071,1.0499999523162842,False
LT_104-109_A8,True,319.0,CLAY        ,1.0,3.0,35.0,221.23121643066406,0.9618748426437378,-46.831214904785156,-0.8173586130142212,0.949999988079071,1.0499999523162842,False
LT_104-109_A8,True,320.0,CLIVE       ,1.0,3.0,35.0,221.94384765625,0.9649732708930969,-44.39181137084961,-0.7747830152511597,0.949999988079071,1.0499999523162842,False
LT_104-109_A8,True,321.0,COBB        ,2.0,3.0,37.0,232.30320739746094,1.0100139379501343,-44.67551803588867,-0.7797346115112305,0.949999988079071,1.0499999523162842,False
LT_104-109_A8,True,322.0,COLE        ,2.0,3.0,37.0,236.59814453125,1.028687596321106,-44.0625114440918,-0.7690356373786926,0.949999988079071,1.0499999523162842,False
LT_104-109_A8,True,323.0,COMTE       ,2.0,3.0,35.0,223.0401611328125,0.9697398543357849,-42.51226806640625,-0.7419788241386414,0.949999988079071,1.0499999523162842,False
LT_104-109_A8,True,324.0,CURIE       ,1.0,3.0,36.0,217.51846313476562,0.9457324743270874,-53.93540573120117,-0.9413501024246216,0.949999988079071,1.0499999523162842,True
LT_104-109_A8,True,325.0,CURTISS     ,1.0,3.0,35.0,219.7980194091797,0.9556435346603394,-40.18546676635742,-0.7013684511184692,0.949999988079071,1.0499999523162842,False
LT_105-110_A9,True,101.0,ABEL        ,2.0,1.0,11.0,132.63851928710938,0.9611486792564392,-14.451678276062012,-0.2522292733192444,0.949999988079071,1.0499999523162842,False
LT_105-110_A9,True,102.0,ADAMS       ,2.0,1.0,12.0,132.84889221191406,0.9626731276512146,-14.229222297668457,-0.24834668636322021,0.949999988079071,1.0499999523162842,False
LT_105-110_A9,True,103.0,ADLER       ,1.0,1.0,11.0,129.86158752441406,0.9410260319709778,-15.053450584411621,-0.2627321779727936,0.949999988079071,1.0499999523162842,True
LT_105-110_A9,True,104.0,AGRICOLA    ,1.0,1.0,11.0,130.6300048828125,0.94659423828125,-13.731945991516113,-0.2396675944328308,0.949999988079071,1.0499999523162842,True
LT_105-110_A9,True,105.0,AIKEN       ,1.0,1.0,11.0,130.92529296875,0.9487339854240417,-16.073575973510742,-0.2805367112159729,0.949999988079071,1.0499999523162842,True
LT_105-110_A9,True,106.0,ALBER       ,1.0,1.0,12.0,134.93844604492188,0.9778148531913757,-13.565791130065918,-0.23676763474941254,0.949999988079071,1.0499999523162842,False
LT_105-110_A9,True,107.0,ALDER       ,2.0,1.0,12.0,132.96527099609375,0.9635164737701416,-7.961254119873047,-0.13895004987716675,0.949999988079071,1.0499999523162842,False
LT_105-110_A9,True,108.0,ALGER       ,1.0,1.0,12.0,131.4684600830078,0.9526700377464294,-10.914928436279297,-0.1905013769865036,0.949999988079071,1.0499999523162842,False
LT_105-110_A9,True,109.0,ALI         ,1.0,1.0,13.0,130.84146118164062,0.948126494884491,-11.190837860107422,-0.19531689584255219,0.949999988079071,1.0499999523162842,True
LT_105-110_A9,True,110.0,ALLEN       ,1.0,1.0,13.0,135.89114379882812,0.984718382358551,-11.047947883605957,-0.19282300770282745,0.949999988079071,1.0499999523162842,False
LT_105-110_A9,True,111.0,ANNA        ,1.0,1.0,13.0,218.47901916503906,0.9499087929725647,-7.660148620605469,-0.13369476795196533,0.949999988079071,1.0499999523162842,True
LT_105-110_A9,True,112.0,ARCHER      ,1.0,1.0,13.0,219.0778045654297,0.9525122046470642,-6.14316463470459,-0.1072184145450592,0.949999988079071,1.0499999523162842,False
LT_105-110_A9,True,113.0,ARNE        ,3.0,1.0,14.0,218.5,0.949999988079071,1.4672310995357354e-21,2.5608004283006296e-23,0.949999988079071,1.0499999523162842,False
LT_105-110_A9,True,114.0,ARNOLD      ,2.0,1.0,16.0,217.63648986816406,0.9462456107139587,-10.713728904724121,-0.18698978424072266,0.949999988079071,1.0499999523162842,True
LT_105-110_A9,True,115.0,ARTHUR      ,2.0,1.0,16.0,221.17630004882812,0.9616360664367676,-12.897207260131836,-0.2250986546278,0.949999988079071,1.0499999523162842,False
LT_105-110_A9,True,116.0,ASSER       ,2.0,1.0,16.0,219.94105529785156,0.9562654495239258,-11.755915641784668,-0.205179363489151,0.949999988079071,1.0499999523162842,False
LT_105-110_A9,True,117.0,ASTON       ,1.0,1.0,17.0,220.7621307373047,0.9598353505134583,-12.262504577636719,-0.2140210121870041,0.949999988079071,1.0499999523162842,False
LT_105-110_A9,True,118.0,ASTOR       ,2.0,1.0,17.0,220.4239044189453,0.9583647847175598,-12.46304988861084,-0.21752117574214935,0.949999988079071,1.0499999523162842,False
LT_105-110_A9,True,119.0,ATTAR       ,1.0,1.0,15.0,218.51889038085938,0.9500821232795715,-10.398458480834961,-0.1814872771501541,0.949999988079071,1.0499999523162842,False
LT_105-110_A9,True,120.0,ATTILA      ,1.0,1.0,15.0,218.2936553955078,0.9491028189659119,-8.194605827331543,-0.1430228054523468,0.949999988079071,1.0499999523162842,True
LT_105-110_A9,True,121.0,ATTLEE      ,2.0,1.0,17.0,221.58761596679688,0.9634244441986084,-12.867060661315918,-0.22457249462604523,0.949999988079071,1.0499999523162842,False
LT_105-110_A9,True,122.0,AUBREY      ,2.0,1.0,17.0,222.9295196533203,0.9692587852478027,-12.687438011169434,-0.2214374989271164,0.949999988079071,1.0499999523162842,False
LT_105-110_A9,True,123.0,AUSTEN      ,2.0,1.0,15.0,218.60459899902344,0.9504547715187073,-6.581778049468994,-0.11487365514039993,0.949999988079071,1.0499999523162842,False
LT_105-110_A9,True,124.0,AVERY       ,1.0,1.0,16.0,219.490478515625,0.954306423664093,-13.691022872924805,-0.2389533370733261,0.949999988079071,1.0499999523162842,False
LT_105-110_A9,True,201.0,BACH        ,2.0,2.0,21.0,131.96511840820312,0.9562689661979675,-32.294883728027344,-0.5636518597602844,0.949999988079071,1.0499999523162842,False
LT_105-110_A9,True,202.0,BACON       ,2.0,2.0,22.0,132.103759765625,0.9572736024856567,-32.43714141845703,-0.5661346912384033,0.949999988079071,1.0499999523162842,False
LT_105-110_A9,True,203.0,BAFFIN      ,1.0,2.0,21.0,128.5406494140625,0.9314539432525635,-23.466262817382812,-0.40956342220306396,0.949999988079071,1.0499999523162842,True
LT_105-110_A9,True,204.0,BAILEY      ,1.0,2.0,21.0,129.28570556640625,0.9368529319763184,-32.71845626831055,-0.5710445642471313,0.949999988079071,1.0499999523162842,True
LT_105-110_A9,True,205.0,BAIN        ,1.0,2.0,21.0,132.3162078857422,0.9588131308555603,-33.67668533325195,-0.5877688527107239,0.949999988079071,1.0499999523162842,False
LT_105-110_A9,True,206.0,BAJER       ,1.0,2.0,22.0,133.43284606933594,0.9669046998023987,-35.03342056274414,-0.611448347568512,0.949999988079071,1.0499999523162842,False
LT_105-110_A9,True,207.0,BAKER       ,2.0,2.0,22.0,131.09999084472656,0.949999988079071,-38.4156494140625,-0.6704793572425842,0.949999988079071,1.0499999523162842,False
LT_105-110_A9,True,208.0,BALCH       ,1.0,2.0,22.0,129.35577392578125,0.9373607039451599,-37.47740936279297,-0.6541039347648621,0.949999988079071,1.0499999523162842,True
LT_105-110_A9,True,209.0,BALZAC      ,1.0,2.0,23.0,129.2321319580078,0.9364647269248962,-30.563495635986328,-0.5334334373474121,0.949999988079071,1.0499999523162842,True
LT_105-110_A9,True,210.0,BANKS       ,1.0,2.0,23.0,134.47003173828125,0.9744205474853516,-33.263648986816406,-0.580560028553009,0.949999988079071,1.0499999523162842,False
LT_105-110_A9,True,211.0,BARDEEN     ,1.0,2.0,23.0,217.97579956054688,0.9477208852767944,-27.79878807067871,-0.48518019914627075,0.949999988079071,1.0499999523162842,True
LT_105-110_A9,True,212.0,BARKLA      ,1.0,2.0,23.0,218.68055725097656,0.9507850408554077,-28.258445739746094,-0.49320274591445923,0.949999988079071,1.0499999523162842,False
LT_105-110_A9,True,213.0,BARLOW      ,2.0,2.0,24.0,218.49998474121094,0.9499999284744263,-26.12124252319336,-0.45590153336524963,0.949999988079071,1.0499999523162842,True
LT_105-110_A9,True,214.0,BARRY       ,2.0,2.0,26.0,217.3925018310547,0.9451847672462463,-25.02546501159668,-0.43677660822868347,0.949999988079071,1.0499999523162842,True
LT_105-110_A9,True,215.0,BARTON      ,2.0,2.0,26.0,220.81295776367188,0.9600563645362854,-15.300165176391602,-0.26703816652297974,0.949999988079071,1.0499999523162842,False
LT_105-110_A9,True,216.0,BASOV       ,2.0,2.0,26.0,221.0763397216797,0.9612014889717102,-17.67089080810547,-0.30841511487960815,0.949999988079071,1.0499999523162842,False
LT_105-110_A9,True,217.0,BATES       ,1.0,2.0,27.0,224.36561584472656,0.9755026698112488,-14.316911697387695,-0.2498771697282791,0.949999988079071,1.0499999523162842,False
LT_105-110_A9,True,218.0,BAYLE       ,2.0,2.0,27.0,226.921142578125,0.9866136908531189,-13.997735977172852,-0.24430648982524872,0.949999988079071,1.0499999523162842,False
LT_105-110_A9,True,219.0,BEDE        ,1.0,2.0,25.0,218.96652221679688,0.9520283341407776,-21.21255111694336,-0.37022873759269714,0.949999988079071,1.0499999523162842,False
LT_105-110_A9,True,220.0,BEETHOVEN   ,1.0,2.0,25.0,218.64283752441406,0.9506210088729858,-23.21091079711914,-0.40510666370391846,0.949999988079071,1.0499999523162842,False
LT_105-110_A9,True,221.0,BEHRING     ,2.0,2.0,27.0,225.50140380859375,0.9804409146308899,-13.62585735321045,-0.2378159910440445,0.949999988079071,1.0499999523162842,False
LT_105-110_A9,True,222.0,BELL        ,1.0,2.0,27.0,226.7501678466797,0.9858703017234802,-13.95409870147705,-0.24354487657546997,0.949999988079071,1.0499999523162842,False
LT_105-110_A9,True,223.0,BLOCH       ,2.0,2.0,25.0,218.7642059326172,0.9511487483978271,-23.87424659729004,-0.4166840612888336,0.949999988079071,1.0499999523162842,False
LT_105-110_A9,True,224.0,BORDET      ,1.0,2.0,26.0,217.34353637695312,0.9449719190597534,-18.337121963500977,-0.32004305720329285,0.949999988079071,1.0499999523162842,True
LT_105-110_A9,True,301.0,CABELL      ,2.0,3.0,31.0,133.38796997070312,0.9665794372558594,-69.52523040771484,-1.2134437561035156,0.949999988079071,1.0499999523162842,False
LT_105-110_A9,True,302.0,CABOT       ,2.0,3.0,32.0,133.63504028320312,0.9683698415756226,-69.68109893798828,-1.216164231300354,0.949999988079071,1.0499999523162842,False
LT_105-110_A9,True,303.0,CAESAR      ,1.0,3.0,31.0,129.171630859375,0.9360263347625732,-63.32938003540039,-1.105305790901184,0.949999988079071,1.0499999523162842,True
LT_105-110_A9,True,304.0,CAINE       ,1.0,3.0,31.0,129.5487518310547,0.9387590885162354,-68.6096420288086,-1.1974637508392334,0.949999988079071,1.0499999523162842,True
LT_105-110_A9,True,305.0,CALVIN      ,1.0,3.0,31.0,132.42364501953125,0.9595916271209717,-69.37274932861328,-1.2107824087142944,0.949999988079071,1.0499999523162842,False
LT_105-110_A9,True,306.0,CAMUS       ,1.0,3.0,32.0,132.7365264892578,0.9618589282035828,-70.04315948486328,-1.2224833965301514,0.949999988079071,1.0499999523162842,False
LT_105-110_A9,True,307.0,CAREW       ,2.0,3.0,32.0,127.2210464477539,0.9218916296958923,-75.49189758300781,-1.3175816535949707,0.949999988079071,1.0499999523162842,True
LT_105-110_A9,True,308.0,CARREL      ,1.0,3.0,32.0,126.07281494140625,0.9135711193084717,-73.74498748779297,-1.2870924472808838,0.949999988079071,1.0499999523162842,True
LT_105-110_A9,True,309.0,CARTER      ,1.0,3.0,33.0,129.4718017578125,0.9382014870643616,-64.61249542236328,-1.1277004480361938,0.949999988079071,1.0499999523162842,True
LT_105-110_A9,True,310.0,CARUSO      ,1.0,3.0,33.0,133.92384338378906,0.9704626798629761,-66.84555053710938,-1.1666744947433472,0.949999988079071,1.0499999523162842,False
LT_105-110_A9,True,311.0,CARY        ,1.0,3.0,33.0,218.98104858398438,0.9520915150642395,-59.23426055908203,-1.0338325500488281,0.949999988079071,1.0499999523162842,False
LT_105-110_A9,True,312.0,CAXTON      ,1.0,3.0,33.0,218.6554412841797,0.9506758451461792,-57.29893493652344,-1.0000547170639038,0.949999988079071,1.0499999523162842,False
LT_105-110_A9,True,313.0,CECIL       ,2.0,3.0,34.0,224.20762634277344,0.9748157858848572,-55.03249740600586,-0.9604979157447815,0.949999988079071,1.0499999523162842,False
LT_105-110_A9,True,314.0,CHAIN       ,2.0,3.0,36.0,217.72950744628906,0.9466500282287598,-56.44977569580078,-0.9852340817451477,0.949999988079071,1.0499999523162842,True
LT_105-110_A9,True,315.0,CHASE       ,2.0,3.0,36.0,223.49435424804688,0.9717146158218384,-48.46589279174805,-0.8458890914916992,0.949999988079071,1.0499999523162842,False
LT_105-110_A9,True,316.0,CHIFA       ,2.0,3.0,36.0,222.22023010253906,0.9661749005317688,-48.052345275878906,-0.8386713266372681,0.949999988079071,1.0499999523162842,False
LT_105-110_A9,True,317.0,CHUHSI      ,1.0,3.0,37.0,228.4917755126953,0.9934424757957458,-45.27888488769531,-0.7902653813362122,0.949999988079071,1.0499999523162842,False
LT_105-110_A9,True,318.0,CLARK       ,2.0,3.0,37.0,230.6637725830078,1.0028859376907349,-44.00157165527344,-0.7679720520973206,0.949999988079071,1.0499999523162842,False
LT_105-110_A9,True,319.0,CLAY        ,1.0,3.0,35.0,221.23101806640625,0.9618740081787109,-46.873321533203125,-0.818093478679657,0.949999988079071,1.0499999523162842,False
LT_105-110_A9,True,320.0,CLIVE       ,1.0,3.0,35.0,221.944091796875,0.9649743437767029,-44.436702728271484,-0.7755665183067322,0.949999988079071,1.0499999523162842,False
LT_105-110_A9,True,321.0,COBB        ,2.0,3.0,37.0,232.2991485595703,1.0099962949752808,-44.71121597290039,-0.7803576588630676,0.949999988079071,1.0499999523162842,False
LT_105-110_A9,True,322.0,COLE        ,2.0,3.0,37.0,236.59390258789062,1.0286691188812256,-44.09832000732422,-0.7696605920791626,0.949999988079071,1.0499999523162842,False
LT_105-110_A9,True,323.0,COMTE       ,2.0,3.0,35.0,223.0401611328125,0.9697398543357849,-42.558692932128906,-0.7427890300750732,0.949999988079071,1.0499999523162842,False
LT_105-110_A9,True,324.0,CURIE       ,1.0,3.0,36.0,217.51739501953125,0.9457278251647949,-53.97432327270508,-0.9420292973518372,0.949999988079071,1.0499999523162842,True
LT_105-110_A9,True,325.0,CURTISS     ,1.0,3.0,35.0,219.80262756347656,0.9556636214256287,-40.233680725097656,-0.7022099494934082,0.949999988079071,1.0499999523162842,False
LT_106-110_10,True,101.0,ABEL        ,2.0,1.0,11.0,132.63851928710938,0.9611486792564392,-16.342453002929688,-0.28522950410842896,0.949999988079071,1.0499999523162842,False
LT_106-110_10,True,102.0,ADAMS       ,2.0,1.0,12.0,131.7653045654297,0.9548210501670837,-16.6052303314209,-0.28981584310531616,0.949999988079071,1.0499999523162842,False
LT_106-110_10,True,103.0,ADLER       ,1.0,1.0,11.0,129.29481506347656,0.9369189739227295,-15.857627868652344,-0.2767677307128906,0.949999988079071,1.0499999523162842,True
LT_106-110_10,True,104.0,AGRICOLA    ,1.0,1.0,11.0,129.25144958496094,0.9366047382354736,-15.10799789428711,-0.2636842131614685,0.949999988079071,1.0499999523162842,True
...